*RLC circuit
Iin 0  1  1 0 0 0
r1 0 1 1
c1 2 0 0.5m
l1 1 2 2
dv 100n
di 10n
dt 1m
.tran 1