*-4 Test
V1 1 0 4 0 0 0
V2 1 2 3 0 0 0
V3 2 0 1 0 0 0
dv 1
dt 2
di 4
.tran 8