*RLC circuit
Vin 1 0 1 0 0 0
r1 1 0 1
c1 2 0 100u
l1 1 2 2
dv 1u
di 1u
dt 10u
.tran 50