*Error -5
v1 1 0 2 0 0 0
r1 1 2 1
r2 2 0 1
r3 4 5 2
i1 4 5 1 0 0 0
dv 1
di 1
dt 1
.tran 1