*RLC circuit
Iin 0  1  1
r1 0 1 1
c1 0 1 1
l1 0 1 1
dv 1u
di 1n
dt 1m
.tran 4